tests/fuzzer/corpus_json/21_random_003.json
{
  "version": "1.0",
  "type": "input",
  "is_batch": false,
  "attributes": {},
  "data": {
    "node": [
      {
        "id": 0,
        "u_rated": 380000.0
      },
      {
        "id": 1,
        "u_rated": 380000.0
      },
      {
        "id": 2,
        "u_rated": 380000.0
      },
      {
        "id": 3,
        "u_rated": 380000.0
      },
      {
        "id": 4,
        "u_rated": 380000.0
      }
    ],
    "source": [
      {
        "id": 5,
        "node": 0,
        "status": 1,
        "u_ref": 0.9739910333096159,
        "u_ref_angle": 0.0,
        "sk": 544274802.3734223,
        "rx_ratio": 0.30196001929809724,
        "z01_ratio": 1.0
      }
    ],
    "line": [
      {
        "id": 6,
        "from_node": 0,
        "to_node": 1,
        "from_status": 1,
        "to_status": 1,
        "r1": 0.32764429619906554,
        "x1": 0.06583995777437068,
        "c1": 8.374690820964599e-07,
        "tan1": 0.0,
        "r0": 0.3,
        "x0": 0.3,
        "c0": 1e-09,
        "tan0": 0.0,
        "i_n": 266.76047418472757
      },
      {
        "id": 7,
        "from_node": 1,
        "to_node": 2,
        "from_status": 1,
        "to_status": 1,
        "r1": 1.1716548052334819,
        "x1": 4.978224177552314,
        "c1": 4.702635075224479e-07,
        "tan1": 0.0,
        "r0": 0.3,
        "x0": 0.3,
        "c0": 1e-09,
        "tan0": 0.0,
        "i_n": 838.0968367616449
      },
      {
        "id": 8,
        "from_node": 2,
        "to_node": 3,
        "from_status": 1,
        "to_status": 1,
        "r1": 2.3817660434966745,
        "x1": 3.19534070272081,
        "c1": 1.5061642402352394e-07,
        "tan1": 0.0,
        "r0": 0.3,
        "x0": 0.3,
        "c0": 1e-09,
        "tan0": 0.0,
        "i_n": 638.5120517023365
      },
      {
        "id": 9,
        "from_node": 3,
        "to_node": 4,
        "from_status": 1,
        "to_status": 1,
        "r1": 4.340226535716484,
        "x1": 2.6159060519165065,
        "c1": 7.412518562014902e-07,
        "tan1": 0.0,
        "r0": 0.3,
        "x0": 0.3,
        "c0": 1e-09,
        "tan0": 0.0,
        "i_n": 674.6973606158966
      }
    ],
    "sym_load": [
      {
        "id": 10,
        "node": 1,
        "status": 1,
        "type": 2,
        "p_specified": -91442.19413210801,
        "q_specified": 5601.529781671128
      },
      {
        "id": 11,
        "node": 3,
        "status": 1,
        "type": 2,
        "p_specified": 43764.78481316063,
        "q_specified": 7576.256005109633
      }
    ]
  }
}